!--- OpenDSS Linecodes file generated from Show LINECONSTANTS command
!--- Frequency = 50 Hz, Earth resistivity = 100 ohm-m
!--- Earth Model = Deri

New Linecode.silove_vedenie nphases=4  Units=km
~ Rmatrix=[0.0531055  |0.022262  0.0526257  |0.0223826  0.0221427  0.0528615  |0.00793098  0.00811643  0.00802461  0.0490308  ]
~ Xmatrix=[0.415084  |0.282822  0.409304  |0.327786  0.324895  0.412185  |0.00614538  0.00635039  0.00624889  0.0733406  ]
~ Cmatrix=[32.0689  |-1.01801  32.0885  |-23.3181  -23.3153  48.9931  |-0.0407722  -0.0964215  -0.019666  70.5953  ]
